<NUMBER OF ZONES> 1698
<NUMBER OF NODES> 7926
<FIRST THRU NODE> 0
<NUMBER OF LINKS> 21194
<MINIMUM_NODE_ID> 0
<TRIP_FORMAT> 1
<COST_FUN_TYPE> 1
<END OF METADATA>

~origin    dest    capacity    length    fft    alpha    beta    speed_limit    toll    FTYPE    ATYPE    AMLANE    slope    fld    slr    tpa    bri
19    1757    22050.0    0.39    1.02    7    1.08    99    0.00    0    3    7   -0.01   9999   9999   0   0.000000;
20    1819    22050.0    0.35    1.24    15    1.04    99    0.00    0    2    7   0.01   9999   9999   0   0.000000;
20    1822    22050.0    0.14    0.49    15    1.04    99    0.00    0    2    7   -0.04   9999   9999   0   0.000000;
20    2249    22050.0    0.44    1.55    15    1.04    99    0.00    0    2    7   -0.04   9999   9999   0   0.000000;
20    2250    22050.0    0.32    1.13    15    1.04    99    0.00    0    2    7   0.02   9999   9999   0   0.000000;
21    1824    22050.0    0.31    1.09    15    1.04    99    0.00    0    2    7   -0.01   9999   9999   0   0.000000;
21    2053    22050.0    0.23    0.81    15    1.04    99    0.00    0    2    7   -0.04   9999   9999   0   0.000000;
22    2337    22050.0    0.38    1.34    15    1.04    99    0.00    0    2    7   0.01   9999   9999   0   0.000000;
23    2053    22050.0    0.35    1.24    15    1.04    99    0.00    0    2    7   -0.00   9999   9999   0   0.000000;
23    2054    22050.0    0.34    1.20    15    1.04    99    0.00    0    2    7   0.05   9999   9999   0   0.000000;
23    2353    22050.0    0.28    0.99    15    1.04    99    0.00    0    2    7   0.05   9999   9999   0   0.000000;
24    2245    22050.0    0.45    1.59    15    1.04    99    0.00    0    2    7   0.01   9999   9999   0   1163.880000;
24    2247    22050.0    0.29    1.02    15    1.04    99    0.00    0    2    7   0.02   9999   9999   0   0.000000;
24    2248    22050.0    0.27    0.95    15    1.04    99    0.00    0    2    7   0.05   9999   9999   0   0.000000;
25    1840    22050.0    0.23    0.81    15    1.04    99    0.00    0    2    7   -0.01   9999   9999   0   0.000000;
25    2339    22050.0    0.43    1.52    15    1.04    99    0.00    0    2    7   -0.00   9999   9999   0   0.000000;
25    2340    22050.0    0.36    1.27    15    1.04    99    0.00    0    2    7   0.03   9999   9999   0   0.000000;
26    1839    22050.0    0.49    1.73    15    1.04    99    0.00    0    2    7   -0.02   365   9999   0   0.000000;
26    2333    22050.0    0.33    1.16    15    1.04    99    0.00    0    2    7   -0.02   365   9999   0   0.000000;
26    2341    22050.0    0.25    0.88    15    1.04    99    0.00    0    2    7   -0.02   365   9999   0   0.000000;
26    2342    22050.0    0.46    1.62    15    1.04    99    0.00    0    2    7   -0.02   365   9999   0   0.000000;
27    1842    22050.0    0.28    0.99    2000    1.00    99    0.00    0    1    7   0.02   366   9999   0   0.000000;
27    2333    22050.0    0.18    0.64    2000    1.00    99    0.00    0    1    7   0.03   9999   9999   0   0.000000;
27    2334    22050.0    0.29    1.02    2000    1.00    99    0.00    0    1    7   0.01   366   9999   0   0.000000;
27    2396    22050.0    0.34    1.20    2000    1.00    99    0.00    0    1    7   0.00   9999   9999   0   0.000000;
28    1979    22050.0    0.10    0.35    2000    1.00    99    0.00    0    1    7   0.00   9999   9999   0   0.000000;
28    2064    22050.0    0.10    0.35    2000    1.00    99    0.00    0    1    7   0.00   9999   9999   0   0.000000;
29    1849    22050.0    0.12    0.42    2000    1.00    99    0.00    0    1    7   -0.01   9999   9999   0   0.000000;
29    1850    22050.0    0.13    0.46    2000    1.00    99    0.00    0    1    7   0.01   9999   9999   0   0.000000;
29    2065    22050.0    0.22    0.78    2000    1.00    99    0.00    0    1    7   -0.00   9999   9999   0   0.000000;
29    2066    22050.0    0.24    0.85    2000    1.00    99    0.00    0    1    7   0.00   9999   9999   0   0.000000;
30    2064    22050.0    0.15    0.53    2000    1.00    99    0.00    0    1    7   -0.00   9999   9999   0   0.000000;
30    2238    22050.0    0.20    0.71    2000    1.00    99    0.00    0    1    7   0.00   9999   9999   0   0.000000;
30    2243    22050.0    0.08    0.28    2000    1.00    99    0.00    0    1    7   0.00   9999   9999   0   0.000000;
31    1842    22050.0    0.18    0.64    2000    1.00    99    0.00    0    1    7   0.02   9999   9999   0   0.000000;
31    2063    22050.0    0.33    1.16    2000    1.00    99    0.00    0    1    7   -0.01   366   9999   0   0.000000;
31    2065    22050.0    0.18    0.64    2000    1.00    99    0.00    0    1    7   -0.01   9999   9999   0   0.000000;
31    2244    22050.0    0.18    0.64    2000    1.00    99    0.00    0    1    7   0.00   9999   9999   0   0.000000;
31    2246    22050.0    0.26    0.92    2000    1.00    99    0.00    0    1    7   -0.02   9999   9999   0   0.000000;
32    2235    22050.0    0.12    0.42    2000    1.00    99    0.00    0    1    7   0.00   9999   9999   0   0.000000;
32    2236    22050.0    0.23    0.81    2000    1.00    99    0.00    0    1    7   -0.01   9999   9999   0   0.000000;
33    2259    22050.0    0.23    0.81    15    1.04    99    0.00    0    2    7   -0.02   9999   9999   0   0.000000;
33    2260    22050.0    0.17    0.60    15    1.04    99    0.00    0    2    7   0.02   9999   9999   0   0.000000;
33    2261    22050.0    0.30    1.06    15    1.04    99    0.00    0    2    7   0.00   9999   9999   0   0.000000;
33    2414    22050.0    0.13    0.46    15    1.04    99    0.00    0    2    7   -0.00   9999   9999   0   0.000000;
34    2062    22050.0    0.19    0.67    15    1.04    99    0.00    0    2    7   -0.01   9999   9999   0   0.000000;
34    2256    22050.0    0.50    1.76    15    1.04    99    0.00    0    2    7   0.01   9999   9999   0   0.000000;
34    2258    22050.0    0.35    1.24    15    1.04    99    0.00    0    2    7   0.01   9999   9999   0   0.000000;
35    1816    22050.0    0.21    0.74    15    1.04    99    0.00    0    2    7   0.04   9999   9999   0   0.000000;
35    2062    22050.0    0.32    1.13    15    1.04    99    0.00    0    2    7   0.02   9999   9999   0   0.000000;
35    2262    22050.0    0.21    0.74    15    1.04    99    0.00    0    2    7   0.00   9999   9999   0   0.000000;
35    2367    22050.0    0.18    0.64    15    1.04    99    0.00    0    2    7   -0.05   9999   9999   0   0.000000;
36    2237    22050.0    0.44    1.55    15    1.04    99    0.00    0    2    7   -0.00   9999   9999   0   0.000000;
36    2263    22050.0    0.16    0.56    15    1.04    99    0.00    0    2    7   -0.01   9999   9999   0   0.000000;
36    2357    22050.0    0.18    0.64    15    1.04    99    0.00    0    2    7   -0.03   9999   9999   0   0.000000;
36    2414    22050.0    0.23    0.81    15    1.04    99    0.00    0    2    7   0.02   9999   9999   0   0.000000;
37    1793    22050.0    0.15    0.53    15    1.04    99    0.00    0    2    7   -0.03   9999   9999   0   0.000000;
37    2228    22050.0    0.25    0.88    15    1.04    99    0.00    0    2    7   -0.01   9999   9999   0   0.000000;
37    2356    22050.0    0.14    0.49    15    1.04    99    0.00    0    2    7   0.04   9999   9999   0   0.000000;
38    2227    22050.0    0.12    0.42    15    1.04    99    0.00    0    2    7   0.03   9999   9999   0   0.000000;
38    2360    22050.0    0.17    0.60    15    1.04    99    0.00    0    2    7   0.05   9999   9999   0   0.000000;
39    2057    22050.0    0.25    0.65    7    1.08    99    0.00    0    3    7   0.02   9999   9999   0   0.000000;
39    2060    22050.0    0.28    0.73    7    1.08    99    0.00    0    3    7   -0.05   9999   9999   0   0.000000;
39    2269    22050.0    0.27    0.70    7    1.08    99    0.00    0    3    7   -0.02   9999   9999   0   0.000000;
39    2415    22050.0    0.36    0.94    7    1.08    99    0.00    0    3    7   -0.01   9999   9999   0   0.000000;
40    1795    22050.0    0.29    1.02    15    1.04    99    0.00    0    2    7   -0.01   9999   9999   0   0.000000;
40    2057    22050.0    0.34    1.20    15    1.04    99    0.00    0    2    7   0.02   9999   9999   0   0.000000;
40    2266    22050.0    0.18    0.64    15    1.04    99    0.00    0    2    7   0.05   9999   9999   0   0.000000;
40    2363    22050.0    0.17    0.60    15    1.04    99    0.00    0    2    7   -0.03   9999   9999   0   0.000000;
41    2264    22050.0    0.10    0.35    15    1.04    99    0.00    0    2    7   0.00   9999   9999   0   0.000000;
41    2362    22050.0    0.18    0.64    15    1.04    99    0.00    0    2    7   0.03   9999   9999   0   0.000000;
41    2363    22050.0    0.11    0.39    15    1.04    99    0.00    0    2    7   -0.03   9999   9999   0   0.000000;
42    2058    22050.0    0.09    0.32    15    1.04    99    0.00    0    2    7   0.01   9999   9999   0   0.000000;
43    2058    22050.0    0.10    0.35    15    1.04    99    0.00    0    2    7   -0.02   9999   9999   0   0.000000;
44    1805    22050.0    0.17    0.35    5.5    1.11    99    0.00    0    4    7   0.00   9999   9999   0   0.000000;
44    1976    22050.0    0.30    0.62    5.5    1.11    99    0.00    0    4    7   -0.01   9999   9999   0   0.000000;
44    2061    22050.0    0.28    0.58    5.5    1.11    99    0.00    0    4    7   -0.03   9999   9999   0   0.000000;
44    2252    22050.0    0.50    1.03    5.5    1.11    99    0.00    0    4    7   -0.00   9999   9999   0   0.000000;
45    1809    22050.0    0.19    0.67    15    1.04    99    0.00    0    2    7   0.01   9999   9999   0   0.000000;
45    1976    22050.0    0.14    0.49    15    1.04    99    0.00    0    2    7   0.03   9999   9999   0   0.000000;
45    2366    22050.0    0.34    1.20    15    1.04    99    0.00    0    2    7   -0.03   9999   9999   0   0.000000;
46    2255    22050.0    0.15    0.53    15    1.04    99    0.00    0    2    7   0.02   9999   9999   0   0.000000;
46    2256    22050.0    0.16    0.56    15    1.04    99    0.00    0    2    7   -0.00   9999   9999   0   0.000000;
46    2257    22050.0    0.15    0.53    15    1.04    99    0.00    0    2    7   0.04   9999   9999   0   0.000000;
47    1806    22050.0    0.16    0.56    15    1.04    99    0.00    0    2    7   0.06   9999   9999   0   0.000000;
47    1807    22050.0    0.26    0.92    15    1.04    99    0.00    0    2    7   0.01   9999   9999   0   0.000000;
47    2253    22050.0    0.22    0.78    15    1.04    99    0.00    0    2    7   0.00   9999   9999   0   0.000000;
48    2252    22050.0    0.12    0.42    15    1.04    99    0.00    0    2    7   0.04   9999   9999   0   0.000000;
48    2352    22050.0    0.09    0.32    15    1.04    99    0.00    0    2    7   -0.02   9999   9999   0   0.000000;
49    1819    22050.0    0.27    0.95    15    1.04    99    0.00    0    2    7   0.02   9999   9999   0   0.000000;
49    2814    22050.0    0.15    0.53    15    1.04    99    0.00    0    2    7   0.02   9999   9999   0   0.000000;
50    1804    22050.0    0.12    0.42    15    1.04    99    0.00    0    2    7   0.02   9999   9999   0   0.000000;
51    2814    22050.0    0.15    0.53    15    1.04    99    0.00    0    2    7   0.01   9999   9999   0   0.000000;
52    2251    22050.0    0.26    0.92    15    1.04    99    0.00    0    2    7   0.03   344   9999   0   0.000000;
52    2813    22050.0    0.19    0.67    15    1.04    99    0.00    0    2    7   -0.02   9999   9999   0   0.000000;
53    2352    22050.0    0.10    0.35    15    1.04    99    0.00    0    2    7   0.00   9999   9999   0   0.000000;
54    1798    22050.0    0.27    0.95    15    1.04    99    0.00    0    2    7   0.02   9999   9999   0   0.000000;
54    1801    22050.0    0.52    1.84    15    1.04    99    0.00    0    2    7   0.02   9999   9999   0   0.000000;
54    1803    22050.0    0.20    0.71    15    1.04    99    0.00    0    2    7   0.04   9999   9999   0   0.000000;
55    1769    22050.0    0.24    0.50    5.5    1.11    99    0.00    0    4    7   0.01   9999   9999   0   0.000000;
55    1795    22050.0    0.32    0.66    5.5    1.11    99    0.00    0    4    7   0.01   9999   9999   0   0.000000;
55    1798    22050.0    0.38    0.79    5.5    1.11    99    0.00    0    4    7   0.01   9999   9999   0   0.000000;
55    2061    22050.0    0.34    0.70    5.5    1.11    99    0.00    0    4    7   0.03   9999   9999   0   0.000000;
56    2267    22050.0    0.33    0.68    5.5    1.11    99    0.00    0    4    7   0.00   344   9999   0   0.000000;
56    2268    22050.0    0.09    0.19    5.5    1.11    99    0.00    0    4    7   -0.02   9999   9999   0   0.000000;
56    2368    22050.0    0.30    0.62    5.5    1.11    99    0.00    0    4    7   -0.02   9999   9999   0   0.000000;
56    2369    22050.0    0.34    0.70    5.5    1.11    99    0.00    0    4    7   -0.02   9999   9999   0   0.000000;
57    2271    22050.0    0.13    0.27    5.5    1.11    99    0.00    0    4    7   -0.04   9999   9999   0   0.000000;
57    2272    22050.0    0.52    1.08    5.5    1.11    99    0.00    0    4    7   0.02   9999   9999   0   0.000000;
58    1765    22050.0    0.39    0.67    3    1.25    99    0.00    0    5    7   0.01   9999   9999   0   0.000000;
58    1767    22050.0    0.12    0.21    3    1.25    99    0.00    0    5    7   0.01   9999   9999   0   0.000000;
58    2219    22050.0    0.40    0.69    3    1.25    99    0.00    0    5    7   -0.01   9999   9999   0   0.000000;
59    1759    22050.0    0.17    0.29    3    1.25    99    0.00    0    5    7   -0.06   9999   9999   0   0.000000;
59    1764    22050.0    0.24    0.41    3    1.25    99    0.00    0    5    7   -0.06   9999   9999   0   0.000000;
59    2219    22050.0    0.50    0.86    3    1.25    99    0.00    0    5    7   -0.04   9999   9999   0   0.000000;
59    2810    22050.0    0.63    1.08    3    1.25    99    0.00    0    5    7   -0.01   9999   9999   0   0.000000;
60    1766    22050.0    0.37    0.63    3    1.25    99    0.00    0    5    7   -0.01   9999   9999   0   0.000000;
60    2221    22050.0    0.30    0.51    3    1.25    99    0.00    0    5    7   -0.00   9999   9999   0   0.000000;
61    1782    22050.0    0.33    0.68    5.5    1.11    99    0.00    0    4    7   -0.01   9999   9999   0   0.000000;
61    1783    5880.0    0.59    0.77    5.5    1.11    99    0.00    3    4    7   0.02   9999   9999   0   0.000000;
61    2230    5880.0    0.51    0.67    5.5    1.11    99    0.00    3    4    7   0.00   9999   9999   0   0.000000;
62    1763    22050.0    0.41    0.85    5.5    1.11    99    0.00    0    4    7   -0.01   9999   9999   0   0.000000;
62    2220    22050.0    0.31    0.64    5.5    1.11    99    0.00    0    4    7   -0.04   9999   9999   0   0.000000;
62    2222    22050.0    0.48    0.99    5.5    1.11    99    0.00    0    4    7   -0.00   9999   9999   0   0.000000;
62    2270    22050.0    0.58    1.20    5.5    1.11    99    0.00    0    4    7   0.01   9999   9999   0   0.000000;
63    2229    22050.0    0.20    0.71    15    1.04    99    0.00    0    2    7   -0.05   9999   9999   0   0.000000;
64    2223    22050.0    0.28    0.58    5.5    1.11    99    0.00    0    4    7   0.00   9999   9999   0   0.000000;
64    2224    22050.0    0.39    0.81    5.5    1.11    99    0.00    0    4    7   0.01   9999   9999   0   0.000000;
64    2225    22050.0    0.48    0.99    5.5    1.11    99    0.00    0    4    7   -0.00   9999   9999   0   0.000000;
64    2226    22050.0    0.48    0.99    5.5    1.11    99    0.00    0    4    7   -0.05   9999   9999   0   0.000000;
65    2230    22050.0    0.07    0.25    15    1.04    99    0.00    0    2    7   0.06   9999   9999   0   0.000000;
65    2417    22050.0    0.10    0.35    15    1.04    99    0.00    0    2    7   0.05   9999   9999   0   0.000000;
66    2233    22050.0    0.19    0.67    15    1.04    99    0.00    0    2    7   -0.02   9999   9999   0   0.000000;
66    2234    22050.0    0.12    0.42    15    1.04    99    0.00    0    2    7   -0.05   9999   9999   0   0.000000;
66    2417    22050.0    0.09    0.32    15    1.04    99    0.00    0    2    7   0.04   9999   9999   0   0.000000;
66    2418    22050.0    0.14    0.49    15    1.04    99    0.00    0    2    7   -0.03   9999   9999   0   0.000000;
67    1786    22050.0    0.08    0.28    15    1.04    99    0.00    0    2    7   0.05   9999   9999   0   0.000000;
68    2002    22050.0    0.12    0.42    15    1.04    99    0.00    0    2    7   -0.07   9999   9999   0   0.000000;
68    2080    22050.0    0.08    0.28    15    1.04    99    0.00    0    2    7   -0.03   9999   9999   0   0.000000;
69    1787    22050.0    0.37    1.31    2000    1.00    99    0.00    0    1    7   0.01   9999   9999   0   0.000000;
69    2002    22050.0    0.31    1.09    2000    1.00    99    0.00    0    1    7   -0.04   9999   9999   0   0.000000;
69    2237    22050.0    0.30    1.06    2000    1.00    99    0.00    0    1    7   -0.01   9999   9999   0   0.000000;
69    2354    22050.0    0.29    1.02    2000    1.00    99    0.00    0    1    7   -0.02   9999   9999   0   0.000000;
70    1787    22050.0    0.22    0.78    2000    1.00    99    0.00    0    1    7   -0.02   9999   9999   0   0.000000;
71    1855    22050.0    0.16    0.56    2000    1.00    99    0.00    0    1    7   0.00   9999   9999   0   0.000000;
71    1857    22050.0    0.15    0.53    2000    1.00    99    0.00    0    1    7   0.06   9999   9999   0   0.000000;
71    2070    22050.0    0.26    0.92    2000    1.00    99    0.00    0    1    7   -0.01   9999   9999   0   0.000000;
72    1855    22050.0    0.11    0.39    2000    1.00    99    0.00    0    1    7   -0.00   9999   9999   0   0.000000;
72    1980    22050.0    0.11    0.39    2000    1.00    99    0.00    0    1    7   0.01   9999   9999   0   0.000000;
72    2239    22050.0    0.20    0.71    2000    1.00    99    0.00    0    1    7   -0.01   9999   9999   0   0.000000;
73    1890    22050.0    0.07    0.25    2000    1.00    99    0.00    0    1    7   -0.01   9999   9999   0   0.000000;
73    1980    22050.0    0.08    0.28    2000    1.00    99    0.00    0    1    7   0.01   9999   9999   0   0.000000;
73    2238    22050.0    0.22    0.78    2000    1.00    99    0.00    0    1    7   -0.00   9999   9999   0   0.000000;
74    1889    22050.0    0.07    0.25    2000    1.00    99    0.00    0    1    7   0.01   9999   9999   0   0.000000;
75    2040    22050.0    0.13    0.46    2000    1.00    99    0.00    0    1    7   0.01   9999   9999   0   0.000000;
75    2282    22050.0    0.30    1.06    2000    1.00    99    0.00    0    1    7   0.01   9999   9999   0   0.000000;
75    2403    22050.0    0.20    0.71    2000    1.00    99    0.00    0    1    7   0.00   9999   9999   0   0.000000;
75    2405    22050.0    0.13    0.46    2000    1.00    99    0.00    0    1    7   0.01   9999   9999   0   0.000000;
75    2413    22050.0    0.28    0.99    2000    1.00    99    0.00    0    1    7   0.01   9999   9999   0   0.000000;
76    2232    22050.0    0.14    0.49    2000    1.00    99    0.00    0    1    7   -0.01   9999   9999   0   0.000000;
77    2281    22050.0    0.05    0.18    2000    1.00    99    0.00    0    1    7   0.08   9999   9999   0   0.000000;
77    2398    22050.0    0.18    0.64    2000    1.00    99    0.00    0    1    7   0.00   9999   9999   0   0.000000;
78    2071    22050.0    0.24    0.85    2000    1.00    99    0.00    0    1    7   0.01   9999   9999   0   0.000000;
78    2399    22050.0    0.14    0.49    2000    1.00    99    0.00    0    1    7   -0.01   9999   9999   0   0.000000;
78    2405    22050.0    0.19    0.67    2000    1.00    99    0.00    0    1    7   -0.01   9999   9999   0   0.000000;
79    2280    22050.0    0.08    0.28    2000    1.00    99    0.00    0    1    7   0.01   9999   9999   0   0.000000;
79    2408    22050.0    0.12    0.42    2000    1.00    99    0.00    0    1    7   -0.03   9999   9999   0   0.000000;
79    2412    22050.0    0.10    0.35    2000    1.00    99    0.00    0    1    7   -0.03   9999   9999   0   0.000000;
80    2071    4200.0    0.14    0.21    2000    1.00    99    0.00    2    1    7   -0.02   9999   9999   0   0.000000;
80    2280    4200.0    0.15    0.22    2000    1.00    99    0.00    2    1    7   0.00   9999   9999   0   0.000000;
81    2231    22050.0    0.16    0.56    15    1.04    99    0.00    0    2    7   -0.00   9999   9999   0   0.000000;
82    1835    22050.0    0.08    0.28    15    1.04    99    0.00    0    2    7   0.01   9999   9999   0   0.000000;
83    1835    22050.0    0.35    1.24    15    1.04    99    0.00    0    2    7   -0.04   9999   9999   0   0.000000;
84    1865    22050.0    0.22    0.78    2000    1.00    99    0.00    0    1    7   -0.02   9999   9999   0   0.000000;
85    2273    22050.0    0.20    0.71    2000    1.00    99    0.00    0    1    7   0.05   9999   9999   0   578.760000;
86    2275    22050.0    0.08    0.28    2000    1.00    99    0.00    0    1    7   0.04   9999   9999   0   0.000000;
87    1877    22050.0    0.12    0.42    2000    1.00    99    0.00    0    1    7   -0.04   9999   9999   0   0.000000;
88    1877    22050.0    0.21    0.74    2000    1.00    99    0.00    0    1    7   0.08   9999   9999   0   0.000000;
88    2273    22050.0    0.22    0.78    2000    1.00    99    0.00    0    1    7   0.05   9999   9999   0   578.760000;
88    2274    22050.0    0.21    0.74    2000    1.00    99    0.00    0    1    7   -0.01   9999   9999   0   0.000000;
89    1878    22050.0    0.17    0.60    2000    1.00    99    0.00    0    1    7   0.03   9999   9999   0   484.720000;
90    1873    22050.0    0.18    0.64    2000    1.00    99    0.00    0    1    7   -0.02   9999   9999   0   0.000000;
90    1875    22050.0    0.12    0.42    2000    1.00    99    0.00    0    1    7   0.09   9999   9999   0   0.000000;
90    2081    22050.0    0.29    1.02    2000    1.00    99    0.00    0    1    7   -0.01   9999   9999   0   0.000000;
91    1896    22050.0    0.39    1.38    2000    1.00    99    0.00    0    1    7   -0.00   9999   9999   0   0.000000;
92    2278    22050.0    0.24    0.85    2000    1.00    99    0.00    0    1    7   0.06   9999   9999   0   0.000000;
92    2279    22050.0    0.26    0.92    2000    1.00    99    0.00    0    1    7   -0.00   9999   9999   0   0.000000;
93    1880    22050.0    0.19    0.67    2000    1.00    99    0.00    0    1    7   -0.02   9999   9999   0   0.000000;
93    2276    22050.0    0.33    1.16    2000    1.00    99    0.00    0    1    7   0.04   9999   9999   0   0.000000;
93    2277    22050.0    0.30    1.06    2000    1.00    99    0.00    0    1    7   0.00   9999   9999   0   0.000000;
94    2069    22050.0    0.25    0.88    2000    1.00    99    0.00    0    1    7   -0.02   9999   9999   0   0.000000;
94    2277    22050.0    0.25    0.88    2000    1.00    99    0.00    0    1    7   0.02   9999   9999   0   0.000000;
94    2289    22050.0    0.28    0.99    2000    1.00    99    0.00    0    1    7   0.01   9999   9999   0   0.000000;
95    2040    22050.0    0.14    0.49    2000    1.00    99    0.00    0    1    7   0.01   9999   9999   0   0.000000;
95    2283    22050.0    0.15    0.53    2000    1.00    99    0.00    0    1    7   0.01   9999   9999   0   0.000000;
96    2284    22050.0    0.08    0.28    2000    1.00    99    0.00    0    1    7   0.01   9999   9999   0   0.000000;
96    2285    22050.0    0.13    0.46    2000    1.00    99    0.00    0    1    7   -0.00   9999   9999   0   0.000000;
96    2390    22050.0    0.17    0.60    2000    1.00    99    0.00    0    1    7   -0.01   9999   9999   0   0.000000;
96    2393    22050.0    0.22    0.78    2000    1.00    99    0.00    0    1    7   -0.01   9999   9999   0   0.000000;
96    2419    22050.0    0.21    0.74    2000    1.00    99    0.00    0    1    7   -0.00   9999   9999   0   0.000000;
97    2240    22050.0    0.15    0.53    2000    1.00    99    0.00    0    1    7   0.01   9999   9999   0   0.000000;
97    2389    22050.0    0.13    0.46    2000    1.00    99    0.00    0    1    7   -0.01   9999   9999   0   0.000000;
97    2391    22050.0    0.09    0.32    2000    1.00    99    0.00    0    1    7   -0.01   9999   9999   0   0.000000;
97    2392    22050.0    0.18    0.64    2000    1.00    99    0.00    0    1    7   0.00   9999   9999   0   0.000000;
98    2286    22050.0    0.14    0.49    2000    1.00    99    0.00    0    1    7   -0.00   9999   9999   0   0.000000;
98    2351    22050.0    0.08    0.28    2000    1.00    99    0.00    0    1    7   0.03   9999   9999   0   0.000000;
98    2393    22050.0    0.09    0.32    2000    1.00    99    0.00    0    1    7   -0.02   9999   9999   0   0.000000;
99    1898    22050.0    0.25    0.88    2000    1.00    99    0.00    0    1    7   0.02   9999   9999   0   0.000000;
99    1899    22050.0    0.09    0.32    2000    1.00    99    0.00    0    1    7   -0.02   9999   9999   0   0.000000;
99    1900    22050.0    0.22    0.78    2000    1.00    99    0.00    0    1    7   0.04   9999   9999   0   0.000000;
99    2286    22050.0    0.33    1.16    2000    1.00    99    0.00    0    1    7   -0.00   9999   9999   0   0.000000;
99    2372    22050.0    0.27    0.95    2000    1.00    99    0.00    0    1    7   -0.00   9999   9999   0   0.000000;
100    2076    22050.0    0.10    0.35    15    1.04    99    0.00    0    2    7   0.00   9999   9999   0   0.000000;
101    1896    22050.0    0.47    1.66    15    1.04    99    0.00    0    2    7   -0.01   9999   9999   0   0.000000;
101    1903    22050.0    0.25    0.88    15    1.04    99    0.00    0    2    7   0.03   9999   9999   0   0.000000;
102    2073    22050.0    0.44    1.15    7    1.08    99    0.00    0    3    7   0.02   9999   9999   0   881.685000;
102    2287    22050.0    0.63    1.64    7    1.08    99    0.00    0    3    7   0.01   9999   9999   0   0.000000;
103    2292    22050.0    0.09    0.32    2000    1.00    99    0.00    0    1    7   -0.01   9999   9999   0   0.000000;
104    2292    22050.0    0.29    1.02    15    1.04    99    0.00    0    2    7   -0.01   9999   9999   0   0.000000;
105    1914    22050.0    0.16    0.56    15    1.04    99    0.00    0    2    7   -0.00   9999   9999   0   0.000000;
105    2290    22050.0    0.32    1.13    15    1.04    99    0.00    0    2    7   0.01   9999   9999   0   0.000000;
105    2291    22050.0    0.35    1.24    15    1.04    99    0.00    0    2    7   0.00   9999   9999   0   0.000000;
106    1950    22050.0    0.45    1.59    2000    1.00    99    0.00    0    1    7   0.01   9999   9999   0   0.000000;
106    1988    22050.0    0.33    1.16    2000    1.00    99    0.00    0    1    7   0.02   9999   9999   0   0.000000;
107    1985    22050.0    0.07    0.25    2000    1.00    99    0.00    0    1    7   0.00   9999   9999   0   0.000000;
107    2293    22050.0    0.27    0.95    2000    1.00    99    0.00    0    1    7   0.01   9999   9999   0   0.000000;
108    1990    22050.0    0.16    0.56    2000    1.00    99    0.00    0    1    7   -0.01   9999   9999   0   0.000000;
108    2294    22050.0    0.21    0.74    2000    1.00    99    0.00    0    1    7   -0.00   9999   9999   0   0.000000;
109    1962    22050.0    0.10    0.35    2000    1.00    99    0.00    0    1    7   0.07   9999   9999   0   0.000000;
109    2213    22050.0    0.08    0.28    2000    1.00    99    0.00    0    1    7   0.03   9999   9999   0   0.000000;
110    2287    22050.0    0.08    0.28    2000    1.00    99    0.00    0    1    7   0.01   9999   9999   0   0.000000;
111    1963    22050.0    0.24    0.85    2000    1.00    99    0.00    0    1    7   0.01   9999   9999   0   0.000000;
111    2108    22050.0    0.33    1.16    2000    1.00    99    0.00    0    1    7   -0.00   9999   9999   0   0.000000;
111    2288    22050.0    0.36    1.27    2000    1.00    99    0.00    0    1    7   -0.00   9999   9999   0   0.000000;
112    1971    22050.0    0.15    0.53    15    1.04    99    0.00    0    2    7   0.00   387   9999   0   0.000000;
113    2296    22050.0    0.10    0.35    2000    1.00    99    0.00    0    1    7   -0.03   387   9999   0   0.000000;
113    2297    22050.0    0.10    0.35    2000    1.00    99    0.00    0    1    7   -0.02   387   9999   0   0.000000;
114    2295    22050.0    0.18    0.64    2000    1.00    99    0.00    0    1    7   -0.00   9999   9999   0   0.000000;
115    1998    22050.0    0.15    0.53    2000    1.00    99    0.00    0    1    7   -0.01   9999   9999   0   0.000000;
115    1999    22050.0    0.08    0.28    2000    1.00    99    0.00    0    1    7   -0.01   9999   9999   0   0.000000;
116    1943    22050.0    0.33    1.16    2000    1.00    99    0.00    0    1    7   0.01   9999   9999   0   0.000000;
116    2036    22050.0    0.18    0.64    2000    1.00    99    0.00    0    1    7   0.01   9999   9999   0   0.000000;
116    2421    22050.0    0.10    0.35    2000    1.00    99    0.00    0    1    7   -0.00   9999   9999   0   0.000000;
117    1995    22050.0    0.21    0.74    2000    1.00    99    0.00    0    1    7   0.00   9999   9999   0   0.000000;
117    2009    22050.0    0.11    0.39    2000    1.00    99    0.00    0    1    7   -0.02   9999   9999   0   0.000000;
117    2298    22050.0    0.07    0.25    2000    1.00    99    0.00    0    1    7   -0.02   9999   9999   0   0.000000;
117    2380    22050.0    0.12    0.42    2000    1.00    99    0.00    0    1    7   0.00   9999   9999   0   0.000000;
118    1946    22050.0    0.13    0.46    2000    1.00    99    0.00    0    1    7   -0.03   9999   9999   0   0.000000;